<additional xmlns:xsi="http://www.w3.org/2001/XMLSchema-instance" xsi:noNamespaceSchemaLocation="http://sumo.dlr.de/xsd/additional_file.xsd">
    <laneAreaDetector file="e2output.xml" freq="60" friendlyPos="x" id="e2det_-116906475#0_0" lane="-116906475#0_0" length="0.1" pos="0"/>
    <laneAreaDetector file="e2output.xml" freq="60" friendlyPos="x" id="e2det_116906600#3_0" lane="116906600#3_0" length="45.14" pos="1.4155343563970746e-15"/>
    <laneAreaDetector file="e2output.xml" freq="60" friendlyPos="x" id="e2det_310939788#9_0" lane="310939788#9_0" length="40.94" pos="1.4155343563970746e-15"/>
    <laneAreaDetector file="e2output.xml" freq="60" friendlyPos="x" id="e2det_310939788#9_1" lane="310939788#9_1" length="40.94" pos="1.4155343563970746e-15"/>
    <laneAreaDetector file="e2output.xml" freq="60" friendlyPos="x" id="e2det_-116906548#3_0" lane="-116906548#3_0" length="20.07" pos="1.4155343563970746e-15"/>
    <laneAreaDetector file="e2output.xml" freq="60" friendlyPos="x" id="e2det_-398639741_0" lane="-398639741_0" length="37.91" pos="1.4155343563970746e-15"/>
    <laneAreaDetector file="e2output.xml" freq="60" friendlyPos="x" id="e2det_116906548#2_0" lane="116906548#2_0" length="1.7799999999999998" pos="8.326672684688674e-17"/>
    <laneAreaDetector file="e2output.xml" freq="60" friendlyPos="x" id="e2det_-213849662#8_0" lane="-213849662#8_0" length="53.82" pos="1.4155343563970746e-15"/>
    <laneAreaDetector file="e2output.xml" freq="60" friendlyPos="x" id="e2det_-213849848#2_0" lane="-213849848#2_0" length="93.92" pos="0"/>
    <laneAreaDetector file="e2output.xml" freq="60" friendlyPos="x" id="e2det_213849662#7_0" lane="213849662#7_0" length="55.629999999999995" pos="1.4155343563970746e-15"/>
    <laneAreaDetector file="e2output.xml" freq="60" friendlyPos="x" id="e2det_213849848#1_0" lane="213849848#1_0" length="45.72" pos="1.4155343563970746e-15"/>
    <laneAreaDetector file="e2output.xml" freq="60" friendlyPos="x" id="e2det_-214050489#1_0" lane="-214050489#1_0" length="54.82" pos="1.4155343563970746e-15"/>
    <laneAreaDetector file="e2output.xml" freq="60" friendlyPos="x" id="e2det_-28095679#7_0" lane="-28095679#7_0" length="29.119999999999997" pos="1.4155343563970746e-15"/>
    <laneAreaDetector file="e2output.xml" freq="60" friendlyPos="x" id="e2det_-28095679#7_1" lane="-28095679#7_1" length="29.119999999999997" pos="1.4155343563970746e-15"/>
    <laneAreaDetector file="e2output.xml" freq="60" friendlyPos="x" id="e2det_214050489#0_0" lane="214050489#0_0" length="114.35000000000001" pos="0"/>
    <laneAreaDetector file="e2output.xml" freq="60" friendlyPos="x" id="e2det_28095679#6_0" lane="28095679#6_0" length="25.63" pos="1.4155343563970746e-15"/>
    <laneAreaDetector file="e2output.xml" freq="60" friendlyPos="x" id="e2det_28095679#6_1" lane="28095679#6_1" length="25.63" pos="1.4155343563970746e-15"/>
    <laneAreaDetector file="e2output.xml" freq="60" friendlyPos="x" id="e2det_-275474298#0_0" lane="-275474298#0_0" length="24.43" pos="1.4155343563970746e-15"/>
    <laneAreaDetector file="e2output.xml" freq="60" friendlyPos="x" id="e2det_-275474298#0_1" lane="-275474298#0_1" length="24.43" pos="1.4155343563970746e-15"/>
    <laneAreaDetector file="e2output.xml" freq="60" friendlyPos="x" id="e2det_-28095679#0_0" lane="-28095679#0_0" length="58.5" pos="1.4155343563970746e-15"/>
    <laneAreaDetector file="e2output.xml" freq="60" friendlyPos="x" id="e2det_-28095679#0_1" lane="-28095679#0_1" length="58.5" pos="1.4155343563970746e-15"/>
    <laneAreaDetector file="e2output.xml" freq="60" friendlyPos="x" id="e2det_-50108228#0_0" lane="-50108228#0_0" length="19.99" pos="1.4155343563970746e-15"/>
    <laneAreaDetector file="e2output.xml" freq="60" friendlyPos="x" id="e2det_-50108228#0_1" lane="-50108228#0_1" length="19.99" pos="1.4155343563970746e-15"/>
    <laneAreaDetector file="e2output.xml" freq="60" friendlyPos="x" id="e2det_313329467#3_0" lane="313329467#3_0" length="49.48" pos="1.4155343563970746e-15"/>
    <laneAreaDetector file="e2output.xml" freq="60" friendlyPos="x" id="e2det_-28110311#1_0" lane="-28110311#1_0" length="58.629999999999995" pos="1.4155343563970746e-15"/>
    <laneAreaDetector file="e2output.xml" freq="60" friendlyPos="x" id="e2det_-28110311#1_1" lane="-28110311#1_1" length="58.629999999999995" pos="1.4155343563970746e-15"/>
    <laneAreaDetector file="e2output.xml" freq="60" friendlyPos="x" id="e2det_-28110961#5_0" lane="-28110961#5_0" length="52.71" pos="1.4155343563970746e-15"/>
    <laneAreaDetector file="e2output.xml" freq="60" friendlyPos="x" id="e2det_28110311#0_0" lane="28110311#0_0" length="33.46" pos="1.4155343563970746e-15"/>
    <laneAreaDetector file="e2output.xml" freq="60" friendlyPos="x" id="e2det_28110311#0_1" lane="28110311#0_1" length="33.46" pos="1.4155343563970746e-15"/>
    <laneAreaDetector file="e2output.xml" freq="60" friendlyPos="x" id="e2det_28110961#4_0" lane="28110961#4_0" length="98.0" pos="0"/>
    <laneAreaDetector file="e2output.xml" freq="60" friendlyPos="x" id="e2det_-28110312#3_0" lane="-28110312#3_0" length="126.30000000000001" pos="0"/>
    <laneAreaDetector file="e2output.xml" freq="60" friendlyPos="x" id="e2det_-355697051#1_0" lane="-355697051#1_0" length="41.97" pos="1.4155343563970746e-15"/>
    <laneAreaDetector file="e2output.xml" freq="60" friendlyPos="x" id="e2det_28110312#2_0" lane="28110312#2_0" length="50.3" pos="1.4155343563970746e-15"/>
    <laneAreaDetector file="e2output.xml" freq="60" friendlyPos="x" id="e2det_355697051#0_0" lane="355697051#0_0" length="85.12" pos="0"/>
    <laneAreaDetector file="e2output.xml" freq="60" friendlyPos="x" id="e2det_-28110951#4_0" lane="-28110951#4_0" length="21.58" pos="1.4155343563970746e-15"/>
    <laneAreaDetector file="e2output.xml" freq="60" friendlyPos="x" id="e2det_-281764023#3_0" lane="-281764023#3_0" length="38.309999999999995" pos="1.4155343563970746e-15"/>
    <laneAreaDetector file="e2output.xml" freq="60" friendlyPos="x" id="e2det_28110951#3_0" lane="28110951#3_0" length="22.139999999999997" pos="1.4155343563970746e-15"/>
    <laneAreaDetector file="e2output.xml" freq="60" friendlyPos="x" id="e2det_281764023#2_0" lane="281764023#2_0" length="52.29" pos="1.4155343563970746e-15"/>
    <laneAreaDetector file="e2output.xml" freq="60" friendlyPos="x" id="e2det_-28110953#6_0" lane="-28110953#6_0" length="250" pos="324.0799999999999"/>
    <laneAreaDetector file="e2output.xml" freq="60" friendlyPos="x" id="e2det_-28110953#6_1" lane="-28110953#6_1" length="250" pos="324.0799999999999"/>
    <laneAreaDetector file="e2output.xml" freq="60" friendlyPos="x" id="e2det_-28110958#1_0" lane="-28110958#1_0" length="29.5" pos="1.4155343563970746e-15"/>
    <laneAreaDetector file="e2output.xml" freq="60" friendlyPos="x" id="e2det_28110953#5_0" lane="28110953#5_0" length="23.229999999999997" pos="1.4155343563970746e-15"/>
    <laneAreaDetector file="e2output.xml" freq="60" friendlyPos="x" id="e2det_28110953#5_1" lane="28110953#5_1" length="23.229999999999997" pos="1.4155343563970746e-15"/>
    <laneAreaDetector file="e2output.xml" freq="60" friendlyPos="x" id="e2det_28110958#0_0" lane="28110958#0_0" length="250" pos="188.14000000000001"/>
    <laneAreaDetector file="e2output.xml" freq="60" friendlyPos="x" id="e2det_-28111894#9_0" lane="-28111894#9_0" length="63.32" pos="1.4155343563970746e-15"/>
    <laneAreaDetector file="e2output.xml" freq="60" friendlyPos="x" id="e2det_-28669060#1_0" lane="-28669060#1_0" length="250" pos="88.65"/>
    <laneAreaDetector file="e2output.xml" freq="60" friendlyPos="x" id="e2det_28111894#8_0" lane="28111894#8_0" length="113.7" pos="0"/>
    <laneAreaDetector file="e2output.xml" freq="60" friendlyPos="x" id="e2det_28669060#0_0" lane="28669060#0_0" length="51.16" pos="1.4155343563970746e-15"/>
    <laneAreaDetector file="e2output.xml" freq="60" friendlyPos="x" id="e2det_-28195873#4_0" lane="-28195873#4_0" length="26.479999999999997" pos="1.4155343563970746e-15"/>
    <laneAreaDetector file="e2output.xml" freq="60" friendlyPos="x" id="e2det_-28196000_0" lane="-28196000_0" length="247.54" pos="0"/>
    <laneAreaDetector file="e2output.xml" freq="60" friendlyPos="x" id="e2det_116906325#2_0" lane="116906325#2_0" length="29.259999999999998" pos="1.4155343563970746e-15"/>
    <laneAreaDetector file="e2output.xml" freq="60" friendlyPos="x" id="e2det_28195873#3_0" lane="28195873#3_0" length="39.16" pos="1.4155343563970746e-15"/>
    <laneAreaDetector file="e2output.xml" freq="60" friendlyPos="x" id="e2det_-28669059#2_0" lane="-28669059#2_0" length="34.41" pos="1.4155343563970746e-15"/>
    <laneAreaDetector file="e2output.xml" freq="60" friendlyPos="x" id="e2det_-313329467#2_0" lane="-313329467#2_0" length="79.10000000000001" pos="0"/>
    <laneAreaDetector file="e2output.xml" freq="60" friendlyPos="x" id="e2det_28669059#1_0" lane="28669059#1_0" length="8.06" pos="0"/>
    <laneAreaDetector file="e2output.xml" freq="60" friendlyPos="x" id="e2det_313329467#1_0" lane="313329467#1_0" length="43.41" pos="1.4155343563970746e-15"/>
    <laneAreaDetector file="e2output.xml" freq="60" friendlyPos="x" id="e2det_-311356064#1_0" lane="-311356064#1_0" length="7.8100000000000005" pos="0"/>
    <laneAreaDetector file="e2output.xml" freq="60" friendlyPos="x" id="e2det_-355708468_0" lane="-355708468_0" length="151.54" pos="0"/>
    <laneAreaDetector file="e2output.xml" freq="60" friendlyPos="x" id="e2det_311356064#0_0" lane="311356064#0_0" length="12.030000000000001" pos="0"/>
    <laneAreaDetector file="e2output.xml" freq="60" friendlyPos="x" id="e2det_-312174790_0" lane="-312174790_0" length="0.1" pos="0"/>
    <laneAreaDetector file="e2output.xml" freq="60" friendlyPos="x" id="e2det_-312174790_1" lane="-312174790_1" length="0.1" pos="0"/>
    <laneAreaDetector file="e2output.xml" freq="60" friendlyPos="x" id="e2det_310474530_0" lane="310474530_0" length="0.1" pos="0"/>
    <laneAreaDetector file="e2output.xml" freq="60" friendlyPos="x" id="e2det_310474530_1" lane="310474530_1" length="0.1" pos="0"/>
    <laneAreaDetector file="e2output.xml" freq="60" friendlyPos="x" id="e2det_312174784_0" lane="312174784_0" length="43.37" pos="1.4155343563970746e-15"/>
    <laneAreaDetector file="e2output.xml" freq="60" friendlyPos="x" id="e2det_-312539648_0" lane="-312539648_0" length="0.1" pos="0"/>
    <laneAreaDetector file="e2output.xml" freq="60" friendlyPos="x" id="e2det_-312539648_1" lane="-312539648_1" length="0.1" pos="0"/>
    <laneAreaDetector file="e2output.xml" freq="60" friendlyPos="x" id="e2det_22839707#6_0" lane="22839707#6_0" length="0.1" pos="0"/>
    <laneAreaDetector file="e2output.xml" freq="60" friendlyPos="x" id="e2det_22839707#6_1" lane="22839707#6_1" length="0.1" pos="0"/>
    <laneAreaDetector file="e2output.xml" freq="60" friendlyPos="x" id="e2det_-334491811#1_0" lane="-334491811#1_0" length="0.85" pos="0"/>
    <laneAreaDetector file="e2output.xml" freq="60" friendlyPos="x" id="e2det_334491811#0_0" lane="334491811#0_0" length="7.98" pos="0"/>
    <laneAreaDetector file="e2output.xml" freq="60" friendlyPos="x" id="e2det_-396689525#1_0" lane="-396689525#1_0" length="52.64" pos="1.4155343563970746e-15"/>
    <laneAreaDetector file="e2output.xml" freq="60" friendlyPos="x" id="e2det_-396689526#1_0" lane="-396689526#1_0" length="22.0" pos="1.4155343563970746e-15"/>
    <laneAreaDetector file="e2output.xml" freq="60" friendlyPos="x" id="e2det_396689525#0_0" lane="396689525#0_0" length="57.809999999999995" pos="1.4155343563970746e-15"/>
    <laneAreaDetector file="e2output.xml" freq="60" friendlyPos="x" id="e2det_396689526#0_0" lane="396689526#0_0" length="108.02000000000001" pos="0"/>
    <laneAreaDetector file="e2output.xml" freq="60" friendlyPos="x" id="e2det_-419454041#1_0" lane="-419454041#1_0" length="8.56" pos="0"/>
    <laneAreaDetector file="e2output.xml" freq="60" friendlyPos="x" id="e2det_-99823267#0_0" lane="-99823267#0_0" length="13.49" pos="0"/>
    <laneAreaDetector file="e2output.xml" freq="60" friendlyPos="x" id="e2det_419454041#0_0" lane="419454041#0_0" length="70.85000000000001" pos="0"/>
    <laneAreaDetector file="e2output.xml" freq="60" friendlyPos="x" id="e2det_-435454126#1_0" lane="-435454126#1_0" length="4.45" pos="0"/>
    <laneAreaDetector file="e2output.xml" freq="60" friendlyPos="x" id="e2det_435454126#0_0" lane="435454126#0_0" length="10.950000000000001" pos="0"/>
    <laneAreaDetector file="e2output.xml" freq="60" friendlyPos="x" id="e2det_-99700928#1_0" lane="-99700928#1_0" length="44.42" pos="1.4155343563970746e-15"/>
    <laneAreaDetector file="e2output.xml" freq="60" friendlyPos="x" id="e2det_99700928#0_0" lane="99700928#0_0" length="4.83" pos="0"/>
    <laneAreaDetector file="e2output.xml" freq="60" friendlyPos="x" id="e2det_312539651#6_0" lane="312539651#6_0" length="70.88000000000001" pos="0"/>
    <laneAreaDetector file="e2output.xml" freq="60" friendlyPos="x" id="e2det_312539651#6_1" lane="312539651#6_1" length="70.88000000000001" pos="0"/>
    <laneAreaDetector file="e2output.xml" freq="60" friendlyPos="x" id="e2det_312540652#2_0" lane="312540652#2_0" length="12.14" pos="0"/>
    <laneAreaDetector file="e2output.xml" freq="60" friendlyPos="x" id="e2det_312540652#2_1" lane="312540652#2_1" length="12.14" pos="0"/>
    <laneAreaDetector file="e2output.xml" freq="60" friendlyPos="x" id="e2det_313328464_0" lane="313328464_0" length="0.1" pos="0"/>
    <laneAreaDetector file="e2output.xml" freq="60" friendlyPos="x" id="e2det_435454107#6_0" lane="435454107#6_0" length="7.4" pos="0"/>
    <laneAreaDetector file="e2output.xml" freq="60" friendlyPos="x" id="e2det_435454107#6_1" lane="435454107#6_1" length="7.4" pos="0"/>
    <laneAreaDetector file="e2output.xml" freq="60" friendlyPos="x" id="e2det_435454118#1_0" lane="435454118#1_0" length="10.17" pos="0"/>
    <laneAreaDetector file="e2output.xml" freq="60" friendlyPos="x" id="e2det_435454118#1_1" lane="435454118#1_1" length="10.17" pos="0"/>
</additional>
