<?xml version="1.0" encoding="UTF-8"?>

<!-- generated on 03/28/18 10:06:33 by SUMO netconvert Version 0.32.0
<?xml version="1.0" encoding="UTF-8"?>

<configuration xmlns:xsi="http://www.w3.org/2001/XMLSchema-instance" xsi:noNamespaceSchemaLocation="http://sumo.dlr.de/xsd/netconvertConfiguration.xsd">

    <input>
        <osm-files value="paradise.osm"/>
    </input>

    <output>
        <output-file value="paradise.net.xml"/>
        <output.street-names value="true"/>
    </output>

    <projection>
        <proj.utm value="true"/>
    </projection>

    <tls_building>
        <tls.guess value="true"/>
    </tls_building>

</configuration>
-->

<net version="0.27" xmlns:xsi="http://www.w3.org/2001/XMLSchema-instance" xsi:noNamespaceSchemaLocation="http://sumo.dlr.de/xsd/net_file.xsd">

    <location netOffset="-229909.10,-1929204.21" convBoundary="0.00,0.00,6623.22,2651.93" origBoundary="78.457284,17.329641,78.519646,17.457165" projParameter="+proj=utm +zone=44 +ellps=WGS84 +datum=WGS84 +units=m +no_defs"/>

    <type id="highway.bridleway" priority="1" numLanes="1" speed="2.78" allow="pedestrian" oneway="1" width="2.00"/>
    <type id="highway.bus_guideway" priority="1" numLanes="1" speed="8.33" allow="bus" oneway="1"/>
    <type id="highway.cycleway" priority="1" numLanes="1" speed="5.56" allow="bicycle" oneway="0" width="1.00"/>
    <type id="highway.footway" priority="1" numLanes="1" speed="2.78" allow="pedestrian" oneway="1" width="2.00"/>
    <type id="highway.ford" priority="1" numLanes="1" speed="2.78" allow="army" oneway="0"/>
    <type id="highway.living_street" priority="3" numLanes="1" speed="2.78" disallow="tram rail_urban rail rail_electric ship" oneway="0"/>
    <type id="highway.motorway" priority="13" numLanes="2" speed="44.44" allow="private emergency authority army vip passenger hov taxi bus coach delivery truck trailer motorcycle evehicle custom1 custom2" oneway="1"/>
    <type id="highway.motorway_link" priority="12" numLanes="1" speed="22.22" allow="private emergency authority army vip passenger hov taxi bus coach delivery truck trailer motorcycle evehicle custom1 custom2" oneway="1"/>
    <type id="highway.path" priority="1" numLanes="1" speed="2.78" allow="bicycle pedestrian" oneway="1" width="2.00"/>
    <type id="highway.pedestrian" priority="1" numLanes="1" speed="2.78" allow="pedestrian" oneway="1" width="2.00"/>
    <type id="highway.primary" priority="9" numLanes="2" speed="27.78" disallow="tram rail_urban rail rail_electric ship" oneway="0"/>
    <type id="highway.primary_link" priority="8" numLanes="1" speed="22.22" disallow="tram rail_urban rail rail_electric ship" oneway="0"/>
    <type id="highway.raceway" priority="14" numLanes="2" speed="83.33" allow="vip" oneway="0"/>
    <type id="highway.residential" priority="4" numLanes="1" speed="13.89" disallow="tram rail_urban rail rail_electric ship" oneway="0"/>
    <type id="highway.secondary" priority="7" numLanes="2" speed="27.78" disallow="tram rail_urban rail rail_electric ship" oneway="0"/>
    <type id="highway.secondary_link" priority="6" numLanes="1" speed="22.22" disallow="tram rail_urban rail rail_electric ship" oneway="0"/>
    <type id="highway.service" priority="2" numLanes="1" speed="5.56" allow="delivery bicycle pedestrian" oneway="0"/>
    <type id="highway.services" priority="1" numLanes="1" speed="8.33" disallow="tram rail_urban rail rail_electric ship" oneway="0"/>
    <type id="highway.stairs" priority="1" numLanes="1" speed="1.39" allow="pedestrian" oneway="1" width="2.00"/>
    <type id="highway.step" priority="1" numLanes="1" speed="1.39" allow="pedestrian" oneway="1" width="2.00"/>
    <type id="highway.steps" priority="1" numLanes="1" speed="1.39" allow="pedestrian" oneway="1" width="2.00"/>
    <type id="highway.tertiary" priority="6" numLanes="1" speed="22.22" disallow="tram rail_urban rail rail_electric ship" oneway="0"/>
    <type id="highway.tertiary_link" priority="5" numLanes="1" speed="22.22" disallow="tram rail_urban rail rail_electric ship" oneway="0"/>
    <type id="highway.track" priority="1" numLanes="1" speed="5.56" disallow="tram rail_urban rail rail_electric ship" oneway="0"/>
    <type id="highway.trunk" priority="11" numLanes="2" speed="27.78" disallow="tram rail_urban rail rail_electric bicycle pedestrian ship" oneway="0"/>
    <type id="highway.trunk_link" priority="10" numLanes="1" speed="22.22" disallow="tram rail_urban rail rail_electric bicycle pedestrian ship" oneway="0"/>
    <type id="highway.unclassified" priority="5" numLanes="1" speed="13.89" disallow="tram rail_urban rail rail_electric ship" oneway="0"/>
    <type id="highway.unsurfaced" priority="1" numLanes="1" speed="8.33" disallow="tram rail_urban rail rail_electric ship" oneway="0"/>
    <type id="railway.light_rail" priority="15" numLanes="1" speed="27.78" allow="rail_urban" oneway="1"/>
    <type id="railway.preserved" priority="15" numLanes="1" speed="27.78" allow="rail" oneway="1"/>
    <type id="railway.rail" priority="15" numLanes="1" speed="83.33" allow="rail rail_electric" oneway="1"/>
    <type id="railway.subway" priority="15" numLanes="1" speed="27.78" allow="rail_urban" oneway="1"/>
    <type id="railway.tram" priority="15" numLanes="1" speed="13.89" allow="tram" oneway="1"/>

    <edge id=":1257610306_0" function="internal">
        <lane id=":1257610306_0_0" index="0" disallow="tram rail_urban rail rail_electric ship" speed="13.89" length="4.82" shape="4415.09,769.92 4414.14,771.07 4413.27,771.39 4412.50,770.90 4411.81,769.58"/>
    </edge>
    <edge id=":1568523188_0" function="internal">
        <lane id=":1568523188_0_0" index="0" disallow="tram rail_urban rail rail_electric ship" speed="13.89" length="4.82" shape="4709.57,1950.09 4708.75,1951.34 4707.93,1951.76 4707.10,1951.35 4706.27,1950.12"/>
    </edge>
    <edge id=":1568523199_0" function="internal">
        <lane id=":1568523199_0_0" index="0" disallow="tram rail_urban rail rail_electric ship" speed="13.89" length="4.82" shape="4535.53,1969.96 4535.61,1971.44 4535.20,1972.27 4534.30,1972.44 4532.89,1971.94"/>
    </edge>
    <edge id=":1611088585_0" function="internal">
        <lane id=":1611088585_0_0" index="0" disallow="tram rail_urban rail rail_electric ship" speed="27.78" length="16.80" shape="4316.52,879.83 4318.88,884.12 4320.58,887.09 4322.78,889.58 4326.64,892.44"/>
        <lane id=":1611088585_0_1" index="1" disallow="tram rail_urban rail rail_electric ship" speed="27.78" length="16.80" shape="4314.09,882.21 4316.58,886.65 4318.42,889.70 4320.78,892.24 4324.83,895.20"/>
    </edge>
    <edge id=":1611088585_2" function="internal">
        <lane id=":1611088585_2_0" index="0" disallow="tram rail_urban rail rail_electric ship" speed="27.78" length="16.53" shape="4311.58,885.33 4326.64,892.44"/>
        <lane id=":1611088585_2_1" index="1" disallow="tram rail_urban rail rail_electric ship" speed="27.78" length="16.53" shape="4309.99,888.22 4324.83,895.20"/>
    </edge>
    <edge id=":1779475603_0" function="internal">
        <lane id=":1779475603_0_0" index="0" disallow="tram rail_urban rail rail_electric ship" speed="27.78" length="0.24" shape="3441.63,1140.81 3441.94,1140.81"/>
        <lane id=":1779475603_0_1" index="1" disallow="tram rail_urban rail rail_electric ship" speed="27.78" length="0.24" shape="3441.75,1144.11 3441.93,1144.11"/>
    </edge>
    <edge id=":1779475609_0" function="internal">
        <lane id=":1779475609_0_0" index="0" disallow="tram rail_urban rail rail_electric ship" speed="27.78" length="0.30" shape="3611.32,1132.93 3611.63,1132.91"/>
        <lane id=":1779475609_0_1" index="1" disallow="tram rail_urban rail rail_electric ship" speed="27.78" length="0.30" shape="3611.47,1136.22 3611.76,1136.21"/>
    </edge>
    <edge id=":1779480563_0" function="internal">
        <lane id=":1779480563_0_0" index="0" disallow="tram rail_urban rail rail_electric ship" speed="27.78" length="0.27" shape="3442.01,1138.42 3441.66,1138.44"/>
        <lane id=":1779480563_0_1" index="1" disallow="tram rail_urban rail rail_electric ship" speed="27.78" length="0.27" shape="3441.74,1135.13 3441.55,1135.14"/>
    </edge>
    <edge id=":1779480570_0" function="internal">
        <lane id=":1779480570_0_0" index="0" disallow="tram rail_urban rail rail_electric ship" speed="27.78" length="0.30" shape="3611.40,1130.55 3611.09,1130.56"/>
        <lane id=":1779480570_0_1" index="1" disallow="tram rail_urban rail rail_electric ship" speed="27.78" length="0.30" shape="3611.27,1127.25 3611.00,1127.26"/>
    </edge>
    <edge id=":1779480577_0" function="internal">
        <lane id=":1779480577_0_0" index="0" disallow="tram rail_urban rail rail_electric ship" speed="27.78" length="81.03" shape="3444.89,1140.82 3460.35,1140.67 3485.36,1140.23 3510.36,1139.60 3525.80,1138.89"/>
        <lane id=":1779480577_0_1" index="1" disallow="tram rail_urban rail rail_electric ship" speed="27.78" length="81.03" shape="3444.87,1144.12 3460.36,1143.97 3485.44,1143.53 3510.50,1142.90 3525.97,1142.19"/>
    </edge>
    <edge id=":1779480577_2" function="internal">
        <lane id=":1779480577_2_0" index="0" disallow="tram rail_urban rail rail_electric ship" speed="27.78" length="81.13" shape="3444.87,1144.12 3460.59,1143.69 3486.02,1143.15 3511.08,1143.71 3525.70,1146.60"/>
    </edge>
    <edge id=":1779480577_3" function="internal">
        <lane id=":1779480577_3_0" index="0" disallow="tram rail_urban rail rail_electric ship" speed="27.78" length="80.90" shape="3445.15,1147.41 3525.80,1138.89"/>
        <lane id=":1779480577_3_1" index="1" disallow="tram rail_urban rail rail_electric ship" speed="27.78" length="80.90" shape="3445.72,1150.68 3525.97,1142.19"/>
    </edge>
    <edge id=":1779480577_5" function="internal">
        <lane id=":1779480577_5_0" index="0" disallow="tram rail_urban rail rail_electric ship" speed="27.78" length="80.04" shape="3445.72,1150.68 3461.25,1149.55 3486.31,1148.13 3511.00,1147.94 3525.44,1150.51"/>
    </edge>
    <edge id=":1779485068_0" function="internal">
        <lane id=":1779485068_0_0" index="0" disallow="tram rail_urban rail rail_electric ship" speed="27.78" length="0.29" shape="3236.53,1137.38 3236.27,1137.39"/>
        <lane id=":1779485068_0_1" index="1" disallow="tram rail_urban rail rail_electric ship" speed="27.78" length="0.29" shape="3236.53,1134.08 3236.22,1134.09"/>
    </edge>
    <edge id=":1779488036_0" function="internal">
        <lane id=":1779488036_0_0" index="0" disallow="tram rail_urban rail rail_electric ship" speed="25.00" length="7.68" shape="4064.46,1121.95 4066.54,1121.58 4068.12,1120.69 4069.20,1119.29 4069.78,1117.39"/>
    </edge>
    <edge id=":1779488036_1" function="internal">
        <lane id=":1779488036_1_0" index="0" disallow="tram rail_urban rail rail_electric ship" speed="27.78" length="11.56" shape="4064.46,1121.95 4076.02,1121.47"/>
        <lane id=":1779488036_1_1" index="1" disallow="tram rail_urban rail rail_electric ship" speed="27.78" length="11.56" shape="4064.63,1125.25 4076.17,1124.76"/>
    </edge>
    <edge id=":1779488036_3" function="internal">
        <lane id=":1779488036_3_0" index="0" disallow="tram rail_urban rail rail_electric ship" speed="25.00" length="12.55" shape="4064.63,1125.25 4068.22,1125.34 4071.34,1126.01 4073.99,1127.26 4076.16,1129.09"/>
    </edge>
    <edge id=":1779488041_0" function="internal">
        <lane id=":1779488041_0_0" index="0" disallow="tram rail_urban rail rail_electric ship" speed="27.78" length="3.00" shape="4091.88,1140.81 4091.40,1137.81"/>
        <lane id=":1779488041_0_1" index="1" disallow="tram rail_urban rail rail_electric ship" speed="27.78" length="3.00" shape="4095.14,1140.26 4094.67,1137.33"/>
    </edge>
    <edge id=":1779488041_2" function="internal">
        <lane id=":1779488041_2_0" index="0" disallow="tram rail_urban rail rail_electric ship" speed="25.00" length="7.49" shape="4095.14,1140.26 4094.57,1138.08 4094.04,1136.51 4093.96,1135.02 4094.72,1133.07"/>
    </edge>
    <edge id=":1779488045_0" function="internal">
        <lane id=":1779488045_0_0" index="0" disallow="tram rail_urban rail rail_electric ship" speed="25.00" length="8.38" shape="4103.49,1103.02 4101.34,1103.35 4099.66,1104.30 4098.44,1105.86 4097.69,1108.03"/>
    </edge>
    <edge id=":1779488045_1" function="internal">
        <lane id=":1779488045_1_0" index="0" disallow="tram rail_urban rail rail_electric ship" speed="27.78" length="10.99" shape="4103.49,1103.02 4092.60,1103.74"/>
        <lane id=":1779488045_1_1" index="1" disallow="tram rail_urban rail rail_electric ship" speed="27.78" length="10.99" shape="4103.45,1099.72 4092.41,1100.45"/>
    </edge>
    <edge id=":1779488045_3" function="internal">
        <lane id=":1779488045_3_0" index="0" disallow="tram rail_urban rail rail_electric ship" speed="25.00" length="12.87" shape="4103.45,1099.72 4099.18,1099.54 4095.78,1098.88 4093.22,1097.75 4091.53,1096.14"/>
    </edge>
    <edge id=":1779488047_0" function="internal">
        <lane id=":1779488047_0_0" index="0" disallow="tram rail_urban rail rail_electric ship" speed="25.00" length="7.99" shape="4069.31,1109.72 4068.35,1107.75 4067.03,1106.37 4065.36,1105.59 4063.32,1105.41"/>
    </edge>
    <edge id=":1779488047_1" function="internal">
        <lane id=":1779488047_1_0" index="0" disallow="tram rail_urban rail rail_electric ship" speed="27.78" length="10.75" shape="4074.06,1104.79 4063.32,1105.41"/>
        <lane id=":1779488047_1_1" index="1" disallow="tram rail_urban rail rail_electric ship" speed="27.78" length="10.75" shape="4073.87,1101.49 4063.15,1102.11"/>
    </edge>
    <edge id=":1779488047_3" function="internal">
        <lane id=":1779488047_3_0" index="0" disallow="tram rail_urban rail rail_electric ship" speed="25.00" length="11.65" shape="4073.10,1096.88 4071.20,1099.04 4068.91,1100.63 4066.23,1101.66 4063.15,1102.11"/>
    </edge>
    <edge id=":1779488052_0" function="internal">
        <lane id=":1779488052_0_0" index="0" disallow="tram rail_urban rail rail_electric ship" speed="27.78" length="5.57" shape="4087.71,1107.40 4087.33,1105.94 4086.57,1104.93 4085.43,1104.36 4083.92,1104.23"/>
    </edge>
    <edge id=":1779488052_1" function="internal">
        <lane id=":1779488052_1_0" index="0" disallow="tram rail_urban rail rail_electric ship" speed="27.78" length="8.30" shape="4087.71,1107.40 4086.74,1099.17"/>
        <lane id=":1779488052_1_1" index="1" disallow="tram rail_urban rail rail_electric ship" speed="27.78" length="8.30" shape="4090.99,1107.03 4090.02,1098.77"/>
    </edge>
    <edge id=":1779488052_3" function="internal">
        <lane id=":1779488052_3_0" index="0" disallow="tram rail_urban rail rail_electric ship" speed="27.78" length="8.49" shape="4092.40,1103.75 4083.92,1104.23"/>
        <lane id=":1779488052_3_1" index="1" disallow="tram rail_urban rail rail_electric ship" speed="27.78" length="8.49" shape="4092.21,1100.46 4083.73,1100.94"/>
    </edge>
    <edge id=":1779488056_0" function="internal">
        <lane id=":1779488056_0_0" index="0" disallow="tram rail_urban rail rail_electric ship" speed="25.00" length="8.69" shape="4098.09,1116.01 4099.00,1117.90 4100.44,1119.23 4102.41,1119.99 4104.91,1120.19"/>
    </edge>
    <edge id=":1779488056_1" function="internal">
        <lane id=":1779488056_1_0" index="0" disallow="tram rail_urban rail rail_electric ship" speed="27.78" length="8.47" shape="4096.44,1120.58 4104.91,1120.19"/>
        <lane id=":1779488056_1_1" index="1" disallow="tram rail_urban rail rail_electric ship" speed="27.78" length="8.47" shape="4096.58,1123.87 4105.02,1123.48"/>
    </edge>
    <edge id=":1779488056_3" function="internal">
        <lane id=":1779488056_3_0" index="0" disallow="tram rail_urban rail rail_electric ship" speed="25.00" length="8.80" shape="4097.85,1127.92 4099.66,1126.01 4100.99,1124.66 4102.55,1123.82 4105.02,1123.48"/>
    </edge>
    <edge id=":1779488058_0" function="internal">
        <lane id=":1779488058_0_0" index="0" disallow="tram rail_urban rail rail_electric ship" speed="27.78" length="2.99" shape="4085.61,1088.57 4085.32,1085.62"/>
        <lane id=":1779488058_0_1" index="1" disallow="tram rail_urban rail rail_electric ship" speed="27.78" length="2.99" shape="4088.89,1088.28 4088.60,1085.28"/>
    </edge>
    <edge id=":1779488058_2" function="internal">
        <lane id=":1779488058_2_0" index="0" disallow="tram rail_urban rail rail_electric ship" speed="25.00" length="3.56" shape="4087.56,1088.39 4085.32,1085.62"/>
    </edge>
    <edge id=":1779495418_0" function="internal">
        <lane id=":1779495418_0_0" index="0" disallow="tram rail_urban rail rail_electric ship" speed="25.00" length="6.48" shape="4380.89,1075.93 4381.00,1077.52 4381.68,1078.78 4382.92,1079.71 4384.73,1080.31"/>
    </edge>
    <edge id=":1779495418_1" function="internal">
        <lane id=":1779495418_1_0" index="0" disallow="tram rail_urban rail rail_electric ship" speed="27.78" length="6.67" shape="4380.89,1075.93 4379.97,1082.60"/>
        <lane id=":1779495418_1_1" index="1" disallow="tram rail_urban rail rail_electric ship" speed="27.78" length="6.67" shape="4377.60,1075.61 4376.70,1082.16"/>
    </edge>
    <edge id=":1779495419_0" function="internal">
        <lane id=":1779495419_0_0" index="0" disallow="tram rail_urban rail rail_electric ship" speed="27.78" length="6.08" shape="4390.21,1082.43 4389.89,1080.59 4389.58,1079.35 4389.34,1078.10 4389.22,1076.25"/>
        <lane id=":1779495419_0_1" index="1" disallow="tram rail_urban rail rail_electric ship" speed="27.78" length="6.08" shape="4393.48,1082.00 4393.18,1080.28 4392.88,1079.11 4392.64,1077.94 4392.52,1076.20"/>
    </edge>
    <edge id=":1779495419_2" function="internal">
        <lane id=":1779495419_2_0" index="0" disallow="tram rail_urban rail rail_electric ship" speed="25.00" length="5.93" shape="4385.58,1080.38 4387.19,1079.68 4388.33,1078.76 4389.01,1077.61 4389.22,1076.25"/>
    </edge>
    <edge id=":1779495420_0" function="internal">
        <lane id=":1779495420_0_0" index="0" disallow="tram rail_urban rail rail_electric ship" speed="20.84" length="4.92" shape="4387.90,1037.10 4386.82,1037.27 4385.99,1037.89 4385.40,1038.96 4385.05,1040.49"/>
    </edge>
    <edge id=":1779495420_1" function="internal">
        <lane id=":1779495420_1_0" index="0" disallow="tram rail_urban rail rail_electric ship" speed="18.06" length="8.96" shape="4387.90,1037.10 4378.95,1036.72"/>
    </edge>
    <edge id=":1779495420_2" function="internal">
        <lane id=":1779495420_2_0" index="0" disallow="tram rail_urban rail rail_electric ship" speed="13.89" length="4.82" shape="4387.90,1037.10 4386.70,1036.21 4386.33,1035.37 4386.78,1034.57 4388.06,1033.80"/>
    </edge>
    <edge id=":1779495420_3" function="internal">
        <lane id=":1779495420_3_0" index="0" disallow="tram rail_urban rail rail_electric ship" speed="20.84" length="4.24" shape="4386.52,1030.45 4386.42,1031.88 4386.64,1032.91 4387.19,1033.56 4388.06,1033.80"/>
    </edge>
    <edge id=":1779495420_4" function="internal">
        <lane id=":1779495420_4_0" index="0" disallow="tram rail_urban rail rail_electric ship" speed="27.78" length="10.20" shape="4386.52,1030.45 4385.05,1040.49"/>
        <lane id=":1779495420_4_1" index="1" disallow="tram rail_urban rail rail_electric ship" speed="27.78" length="10.20" shape="4383.26,1029.93 4381.78,1040.07"/>
    </edge>
    <edge id=":1779495420_6" function="internal">
        <lane id=":1779495420_6_0" index="0" disallow="tram rail_urban rail rail_electric ship" speed="25.00" length="8.69" shape="4383.26,1029.93 4382.57,1032.94 4381.62,1035.08 4380.42,1036.34 4378.95,1036.72"/>
    </edge>
    <edge id=":1779495420_7" function="internal">
        <lane id=":1779495420_7_0" index="0" disallow="tram rail_urban rail rail_electric ship" speed="18.06" length="8.99" shape="4379.07,1033.42 4388.06,1033.80"/>
    </edge>
    <edge id=":1779495420_8" function="internal">
        <lane id=":1779495420_8_0" index="0" disallow="tram rail_urban rail rail_electric ship" speed="25.00" length="8.11" shape="4379.07,1033.42 4380.58,1033.88 4381.53,1035.15 4381.93,1037.21 4381.78,1040.07"/>
    </edge>
    <edge id=":1779495420_9" function="internal">
        <lane id=":1779495420_9_0" index="0" disallow="tram rail_urban rail rail_electric ship" speed="22.22" length="4.82" shape="4379.07,1033.42 4380.28,1034.29 4380.66,1035.13 4380.22,1035.94 4378.95,1036.72"/>
    </edge>
    <edge id=":1779495421_0" function="internal">
        <lane id=":1779495421_0_0" index="0" disallow="tram rail_urban rail rail_electric ship" speed="27.78" length="6.96" shape="4383.14,1090.23 4381.28,1090.65 4379.90,1091.52 4379.00,1092.84 4378.57,1094.62"/>
    </edge>
    <edge id=":1779495421_1" function="internal">
        <lane id=":1779495421_1_0" index="0" disallow="tram rail_urban rail rail_electric ship" speed="27.78" length="14.73" shape="4383.14,1090.23 4368.46,1091.51"/>
        <lane id=":1779495421_1_1" index="1" disallow="tram rail_urban rail rail_electric ship" speed="27.78" length="14.73" shape="4382.84,1086.95 4368.18,1088.22"/>
    </edge>
    <edge id=":1779495421_3" function="internal">
        <lane id=":1779495421_3_0" index="0" disallow="tram rail_urban rail rail_electric ship" speed="27.78" length="10.96" shape="4379.81,1083.79 4378.57,1094.62"/>
        <lane id=":1779495421_3_1" index="1" disallow="tram rail_urban rail rail_electric ship" speed="27.78" length="10.96" shape="4376.54,1083.36 4375.29,1094.31"/>
    </edge>
    <edge id=":1779495423_0" function="internal">
        <lane id=":1779495423_0_0" index="0" disallow="tram rail_urban rail rail_electric ship" speed="27.78" length="5.74" shape="4387.98,1105.12 4389.53,1104.77 4390.63,1104.04 4391.28,1102.91 4391.47,1101.39"/>
    </edge>
    <edge id=":1779495423_1" function="internal">
        <lane id=":1779495423_1_0" index="0" disallow="tram rail_urban rail rail_electric ship" speed="27.78" length="9.05" shape="4387.98,1105.12 4397.00,1104.34"/>
        <lane id=":1779495423_1_1" index="1" disallow="tram rail_urban rail rail_electric ship" speed="27.78" length="9.05" shape="4388.27,1108.41 4397.28,1107.63"/>
    </edge>
    <edge id=":1779495423_3" function="internal">
        <lane id=":1779495423_3_0" index="0" disallow="tram rail_urban rail rail_electric ship" speed="27.78" length="10.09" shape="4391.47,1111.41 4391.47,1101.39"/>
        <lane id=":1779495423_3_1" index="1" disallow="tram rail_urban rail rail_electric ship" speed="27.78" length="10.09" shape="4394.77,1111.48 4394.77,1101.32"/>
    </edge>
    <edge id=":1779495929_0" function="internal">
        <lane id=":1779495929_0_0" index="0" disallow="tram rail_urban rail rail_electric ship" speed="27.78" length="14.09" shape="4408.72,1088.15 4407.30,1103.16"/>
        <lane id=":1779495929_0_1" index="1" disallow="tram rail_urban rail rail_electric ship" speed="27.78" length="14.09" shape="4408.72,1088.15 4404.17,1088.79 4400.81,1089.91 4398.63,1091.49 4397.65,1093.53"/>
    </edge>
    <edge id=":1779495929_2" function="internal">
        <lane id=":1779495929_2_0" index="0" disallow="tram rail_urban rail rail_electric ship" speed="27.78" length="12.53" shape="4408.72,1088.15 4396.22,1089.10"/>
        <lane id=":1779495929_2_1" index="1" disallow="tram rail_urban rail rail_electric ship" speed="27.78" length="12.53" shape="4408.46,1084.86 4395.98,1085.81"/>
    </edge>
    <edge id=":1779495929_4" function="internal">
        <lane id=":1779495929_4_0" index="0" disallow="tram rail_urban rail rail_electric ship" speed="25.00" length="13.58" shape="4408.46,1084.86 4404.26,1084.99 4401.12,1084.56 4398.44,1083.48 4395.65,1081.69"/>
    </edge>
    <edge id=":1779495931_0" function="internal">
        <lane id=":1779495931_0_0" index="0" disallow="tram rail_urban rail rail_electric ship" speed="27.78" length="2.99" shape="4389.15,1071.91 4389.09,1068.94"/>
        <lane id=":1779495931_0_1" index="1" disallow="tram rail_urban rail rail_electric ship" speed="27.78" length="2.99" shape="4392.45,1071.86 4392.38,1068.84"/>
    </edge>
    <edge id=":1779495931_2" function="internal">
        <lane id=":1779495931_2_0" index="0" disallow="tram rail_urban rail rail_electric ship" speed="25.00" length="3.56" shape="4391.10,1071.88 4389.09,1068.94"/>
    </edge>
    <edge id=":1779498342_0" function="internal">
        <lane id=":1779498342_0_0" index="0" disallow="tram rail_urban rail rail_electric ship" speed="27.78" length="2.66" shape="4672.15,1072.00 4669.37,1072.33"/>
        <lane id=":1779498342_0_1" index="1" disallow="tram rail_urban rail rail_electric ship" speed="27.78" length="2.66" shape="4671.83,1068.72 4669.32,1069.01"/>
    </edge>
    <edge id=":1779498342_2" function="internal">
        <lane id=":1779498342_2_0" index="0" disallow="tram rail_urban rail rail_electric ship" speed="27.78" length="3.37" shape="4671.83,1068.72 4669.37,1072.16"/>
        <lane id=":1779498342_2_1" index="1" disallow="tram rail_urban rail rail_electric ship" speed="27.78" length="3.37" shape="4671.83,1068.72 4669.32,1068.86"/>
    </edge>
    <edge id=":1779498346_0" function="internal">
        <lane id=":1779498346_0_0" index="0" disallow="tram rail_urban rail rail_electric ship" speed="27.78" length="0.23" shape="4604.10,1081.38 4603.76,1081.41"/>
        <lane id=":1779498346_0_1" index="1" disallow="tram rail_urban rail rail_electric ship" speed="27.78" length="0.23" shape="4603.65,1078.11 4603.54,1078.12"/>
    </edge>
    <edge id=":1866900722_0" function="internal">
        <lane id=":1866900722_0_0" index="0" disallow="tram rail_urban rail rail_electric ship" speed="25.00" length="16.63" shape="4185.08,1774.48 4184.72,1769.62 4183.62,1765.51 4181.77,1762.15 4179.19,1759.55"/>
    </edge>
    <edge id=":1866900722_1" function="internal">
        <lane id=":1866900722_1_0" index="0" disallow="tram rail_urban rail rail_electric ship" speed="27.78" length="19.63" shape="4185.08,1774.48 4184.79,1754.91"/>
        <lane id=":1866900722_1_1" index="1" disallow="tram rail_urban rail rail_electric ship" speed="27.78" length="19.63" shape="4188.38,1774.49 4188.09,1754.79"/>
    </edge>
    <edge id=":1866900722_3" function="internal">
        <lane id=":1866900722_3_0" index="0" disallow="tram rail_urban rail rail_electric ship" speed="25.00" length="13.26" shape="4188.38,1774.49 4188.79,1769.84 4190.00,1767.76 4192.00,1768.23 4194.81,1771.27"/>
    </edge>
    <edge id=":1866900722_4" function="internal">
        <lane id=":1866900722_4_0" index="0" disallow="tram rail_urban rail rail_electric ship" speed="22.22" length="18.90" shape="4192.16,1773.24 4189.44,1769.83 4186.05,1766.02 4182.48,1762.39 4179.19,1759.55"/>
    </edge>
    <edge id=":1866900722_5" function="internal">
        <lane id=":1866900722_5_0" index="0" disallow="tram rail_urban rail rail_electric ship" speed="25.00" length="19.16" shape="4192.16,1773.24 4190.31,1769.99 4189.14,1766.05 4188.45,1761.09 4188.09,1754.79"/>
    </edge>
    <edge id=":1866900722_6" function="internal">
        <lane id=":1866900722_6_0" index="0" disallow="tram rail_urban rail rail_electric ship" speed="22.22" length="4.82" shape="4192.16,1773.24 4192.08,1771.75 4192.50,1770.93 4193.41,1770.77 4194.81,1771.27"/>
    </edge>
    <edge id=":1866900722_7" function="internal">
        <lane id=":1866900722_7_0" index="0" disallow="tram rail_urban rail rail_electric ship" speed="25.00" length="6.19" shape="4181.18,1756.92 4182.83,1757.86 4183.98,1757.85 4184.63,1756.86 4184.79,1754.91"/>
    </edge>
    <edge id=":1866900722_8" function="internal">
        <lane id=":1866900722_8_0" index="0" disallow="tram rail_urban rail rail_electric ship" speed="22.22" length="19.83" shape="4181.18,1756.92 4184.57,1759.87 4188.37,1763.72 4191.98,1767.76 4194.81,1771.27"/>
    </edge>
    <edge id=":1866900722_9" function="internal">
        <lane id=":1866900722_9_0" index="0" disallow="tram rail_urban rail rail_electric ship" speed="22.22" length="4.82" shape="4181.18,1756.92 4181.67,1758.32 4181.50,1759.23 4180.68,1759.64 4179.19,1759.55"/>
    </edge>
    <edge id=":1866900725_0" function="internal">
        <lane id=":1866900725_0_0" index="0" disallow="tram rail_urban rail rail_electric ship" speed="22.22" length="4.82" shape="4662.98,2337.51 4662.96,2338.99 4662.49,2339.79 4661.57,2339.89 4660.20,2339.29"/>
    </edge>
    <edge id=":1945691626_0" function="internal">
        <lane id=":1945691626_0_0" index="0" disallow="tram rail_urban rail rail_electric ship" speed="25.00" length="6.09" shape="4438.73,1221.84 4437.91,1220.83 4436.72,1220.26 4435.18,1220.13 4433.27,1220.44"/>
    </edge>
    <edge id=":1945691626_1" function="internal">
        <lane id=":1945691626_1_0" index="0" disallow="tram rail_urban rail rail_electric ship" speed="27.78" length="9.67" shape="4438.73,1221.84 4434.26,1213.25"/>
        <lane id=":1945691626_1_1" index="1" disallow="tram rail_urban rail rail_electric ship" speed="27.78" length="9.67" shape="4441.65,1220.31 4437.19,1211.73"/>
    </edge>
    <edge id=":1945691626_3" function="internal">
        <lane id=":1945691626_3_0" index="0" disallow="tram rail_urban rail rail_electric ship" speed="27.78" length="2.41" shape="4441.65,1220.31 4441.81,1218.83 4442.35,1218.08"/>
    </edge>
    <edge id=":1945691626_11" function="internal">
        <lane id=":1945691626_11_0" index="0" speed="27.78" length="2.41" shape="4442.35,1218.08 4443.27,1218.07 4444.58,1218.78"/>
    </edge>
    <edge id=":1945691626_4" function="internal">
        <lane id=":1945691626_4_0" index="0" disallow="tram rail_urban rail rail_electric ship" speed="27.78" length="9.66" shape="4443.05,1208.69 4447.50,1217.25"/>
        <lane id=":1945691626_4_1" index="1" disallow="tram rail_urban rail rail_electric ship" speed="27.78" length="9.66" shape="4440.12,1210.21 4444.58,1218.78"/>
    </edge>
    <edge id=":1945691626_6" function="internal">