<additional xmlns:xsi="http://www.w3.org/2001/XMLSchema-instance" xsi:noNamespaceSchemaLocation="http://sumo.dlr.de/xsd/additional_file.xsd">
    <laneAreaDetector file="e2output.xml" freq="60" friendlyPos="x" id="e2det_0/0to0/1_0" lane="0/0to0/1_0" length="91.9" pos="0"/>
    <laneAreaDetector file="e2output.xml" freq="60" friendlyPos="x" id="e2det_0/2to0/1_0" lane="0/2to0/1_0" length="90.4" pos="0"/>
    <laneAreaDetector file="e2output.xml" freq="60" friendlyPos="x" id="e2det_1/1to0/1_0" lane="1/1to0/1_0" length="90.4" pos="0"/>
    <laneAreaDetector file="e2output.xml" freq="60" friendlyPos="x" id="e2det_0/0to1/0_0" lane="0/0to1/0_0" length="91.9" pos="0"/>
    <laneAreaDetector file="e2output.xml" freq="60" friendlyPos="x" id="e2det_1/1to1/0_0" lane="1/1to1/0_0" length="90.4" pos="0"/>
    <laneAreaDetector file="e2output.xml" freq="60" friendlyPos="x" id="e2det_2/0to1/0_0" lane="2/0to1/0_0" length="90.4" pos="0"/>
    <laneAreaDetector file="e2output.xml" freq="60" friendlyPos="x" id="e2det_0/1to0/2_0" lane="0/1to0/2_0" length="90.4" pos="0"/>
    <laneAreaDetector file="e2output.xml" freq="60" friendlyPos="x" id="e2det_0/3to0/2_0" lane="0/3to0/2_0" length="90.4" pos="0"/>
    <laneAreaDetector file="e2output.xml" freq="60" friendlyPos="x" id="e2det_1/2to0/2_0" lane="1/2to0/2_0" length="90.4" pos="0"/>
    <laneAreaDetector file="e2output.xml" freq="60" friendlyPos="x" id="e2det_0/1to1/1_0" lane="0/1to1/1_0" length="90.4" pos="0"/>
    <laneAreaDetector file="e2output.xml" freq="60" friendlyPos="x" id="e2det_1/0to1/1_0" lane="1/0to1/1_0" length="90.4" pos="0"/>
    <laneAreaDetector file="e2output.xml" freq="60" friendlyPos="x" id="e2det_1/2to1/1_0" lane="1/2to1/1_0" length="90.4" pos="0"/>
    <laneAreaDetector file="e2output.xml" freq="60" friendlyPos="x" id="e2det_2/1to1/1_0" lane="2/1to1/1_0" length="90.4" pos="0"/>
    <laneAreaDetector file="e2output.xml" freq="60" friendlyPos="x" id="e2det_0/2to0/3_0" lane="0/2to0/3_0" length="90.4" pos="0"/>
    <laneAreaDetector file="e2output.xml" freq="60" friendlyPos="x" id="e2det_0/4to0/3_0" lane="0/4to0/3_0" length="91.9" pos="0"/>
    <laneAreaDetector file="e2output.xml" freq="60" friendlyPos="x" id="e2det_1/3to0/3_0" lane="1/3to0/3_0" length="90.4" pos="0"/>
    <laneAreaDetector file="e2output.xml" freq="60" friendlyPos="x" id="e2det_0/2to1/2_0" lane="0/2to1/2_0" length="90.4" pos="0"/>
    <laneAreaDetector file="e2output.xml" freq="60" friendlyPos="x" id="e2det_1/1to1/2_0" lane="1/1to1/2_0" length="90.4" pos="0"/>
    <laneAreaDetector file="e2output.xml" freq="60" friendlyPos="x" id="e2det_1/3to1/2_0" lane="1/3to1/2_0" length="90.4" pos="0"/>
    <laneAreaDetector file="e2output.xml" freq="60" friendlyPos="x" id="e2det_2/2to1/2_0" lane="2/2to1/2_0" length="90.4" pos="0"/>
    <laneAreaDetector file="e2output.xml" freq="60" friendlyPos="x" id="e2det_0/3to1/3_0" lane="0/3to1/3_0" length="90.4" pos="0"/>
    <laneAreaDetector file="e2output.xml" freq="60" friendlyPos="x" id="e2det_1/2to1/3_0" lane="1/2to1/3_0" length="90.4" pos="0"/>
    <laneAreaDetector file="e2output.xml" freq="60" friendlyPos="x" id="e2det_1/4to1/3_0" lane="1/4to1/3_0" length="90.4" pos="0"/>
    <laneAreaDetector file="e2output.xml" freq="60" friendlyPos="x" id="e2det_2/3to1/3_0" lane="2/3to1/3_0" length="90.4" pos="0"/>
    <laneAreaDetector file="e2output.xml" freq="60" friendlyPos="x" id="e2det_0/4to1/4_0" lane="0/4to1/4_0" length="91.9" pos="0"/>
    <laneAreaDetector file="e2output.xml" freq="60" friendlyPos="x" id="e2det_1/3to1/4_0" lane="1/3to1/4_0" length="90.4" pos="0"/>
    <laneAreaDetector file="e2output.xml" freq="60" friendlyPos="x" id="e2det_2/4to1/4_0" lane="2/4to1/4_0" length="90.4" pos="0"/>
    <laneAreaDetector file="e2output.xml" freq="60" friendlyPos="x" id="e2det_1/0to2/0_0" lane="1/0to2/0_0" length="90.4" pos="0"/>
    <laneAreaDetector file="e2output.xml" freq="60" friendlyPos="x" id="e2det_2/1to2/0_0" lane="2/1to2/0_0" length="90.4" pos="0"/>
    <laneAreaDetector file="e2output.xml" freq="60" friendlyPos="x" id="e2det_3/0to2/0_0" lane="3/0to2/0_0" length="90.4" pos="0"/>
    <laneAreaDetector file="e2output.xml" freq="60" friendlyPos="x" id="e2det_1/1to2/1_0" lane="1/1to2/1_0" length="90.4" pos="0"/>
    <laneAreaDetector file="e2output.xml" freq="60" friendlyPos="x" id="e2det_2/0to2/1_0" lane="2/0to2/1_0" length="90.4" pos="0"/>
    <laneAreaDetector file="e2output.xml" freq="60" friendlyPos="x" id="e2det_2/2to2/1_0" lane="2/2to2/1_0" length="90.4" pos="0"/>
    <laneAreaDetector file="e2output.xml" freq="60" friendlyPos="x" id="e2det_3/1to2/1_0" lane="3/1to2/1_0" length="90.4" pos="0"/>
    <laneAreaDetector file="e2output.xml" freq="60" friendlyPos="x" id="e2det_1/2to2/2_0" lane="1/2to2/2_0" length="90.4" pos="0"/>
    <laneAreaDetector file="e2output.xml" freq="60" friendlyPos="x" id="e2det_2/1to2/2_0" lane="2/1to2/2_0" length="90.4" pos="0"/>
    <laneAreaDetector file="e2output.xml" freq="60" friendlyPos="x" id="e2det_2/3to2/2_0" lane="2/3to2/2_0" length="90.4" pos="0"/>
    <laneAreaDetector file="e2output.xml" freq="60" friendlyPos="x" id="e2det_3/2to2/2_0" lane="3/2to2/2_0" length="90.4" pos="0"/>
    <laneAreaDetector file="e2output.xml" freq="60" friendlyPos="x" id="e2det_1/3to2/3_0" lane="1/3to2/3_0" length="90.4" pos="0"/>
    <laneAreaDetector file="e2output.xml" freq="60" friendlyPos="x" id="e2det_2/2to2/3_0" lane="2/2to2/3_0" length="90.4" pos="0"/>
    <laneAreaDetector file="e2output.xml" freq="60" friendlyPos="x" id="e2det_2/4to2/3_0" lane="2/4to2/3_0" length="90.4" pos="0"/>
    <laneAreaDetector file="e2output.xml" freq="60" friendlyPos="x" id="e2det_3/3to2/3_0" lane="3/3to2/3_0" length="90.4" pos="0"/>
    <laneAreaDetector file="e2output.xml" freq="60" friendlyPos="x" id="e2det_1/4to2/4_0" lane="1/4to2/4_0" length="90.4" pos="0"/>
    <laneAreaDetector file="e2output.xml" freq="60" friendlyPos="x" id="e2det_2/3to2/4_0" lane="2/3to2/4_0" length="90.4" pos="0"/>
    <laneAreaDetector file="e2output.xml" freq="60" friendlyPos="x" id="e2det_3/4to2/4_0" lane="3/4to2/4_0" length="90.4" pos="0"/>
    <laneAreaDetector file="e2output.xml" freq="60" friendlyPos="x" id="e2det_2/0to3/0_0" lane="2/0to3/0_0" length="90.4" pos="0"/>
    <laneAreaDetector file="e2output.xml" freq="60" friendlyPos="x" id="e2det_3/1to3/0_0" lane="3/1to3/0_0" length="90.4" pos="0"/>
    <laneAreaDetector file="e2output.xml" freq="60" friendlyPos="x" id="e2det_4/0to3/0_0" lane="4/0to3/0_0" length="91.9" pos="0"/>
    <laneAreaDetector file="e2output.xml" freq="60" friendlyPos="x" id="e2det_2/1to3/1_0" lane="2/1to3/1_0" length="90.4" pos="0"/>
    <laneAreaDetector file="e2output.xml" freq="60" friendlyPos="x" id="e2det_3/0to3/1_0" lane="3/0to3/1_0" length="90.4" pos="0"/>
    <laneAreaDetector file="e2output.xml" freq="60" friendlyPos="x" id="e2det_3/2to3/1_0" lane="3/2to3/1_0" length="90.4" pos="0"/>
    <laneAreaDetector file="e2output.xml" freq="60" friendlyPos="x" id="e2det_4/1to3/1_0" lane="4/1to3/1_0" length="90.4" pos="0"/>
    <laneAreaDetector file="e2output.xml" freq="60" friendlyPos="x" id="e2det_2/2to3/2_0" lane="2/2to3/2_0" length="90.4" pos="0"/>
    <laneAreaDetector file="e2output.xml" freq="60" friendlyPos="x" id="e2det_3/1to3/2_0" lane="3/1to3/2_0" length="90.4" pos="0"/>
    <laneAreaDetector file="e2output.xml" freq="60" friendlyPos="x" id="e2det_3/3to3/2_0" lane="3/3to3/2_0" length="90.4" pos="0"/>
    <laneAreaDetector file="e2output.xml" freq="60" friendlyPos="x" id="e2det_4/2to3/2_0" lane="4/2to3/2_0" length="90.4" pos="0"/>
    <laneAreaDetector file="e2output.xml" freq="60" friendlyPos="x" id="e2det_2/3to3/3_0" lane="2/3to3/3_0" length="90.4" pos="0"/>
    <laneAreaDetector file="e2output.xml" freq="60" friendlyPos="x" id="e2det_3/2to3/3_0" lane="3/2to3/3_0" length="90.4" pos="0"/>
    <laneAreaDetector file="e2output.xml" freq="60" friendlyPos="x" id="e2det_3/4to3/3_0" lane="3/4to3/3_0" length="90.4" pos="0"/>
    <laneAreaDetector file="e2output.xml" freq="60" friendlyPos="x" id="e2det_4/3to3/3_0" lane="4/3to3/3_0" length="90.4" pos="0"/>
    <laneAreaDetector file="e2output.xml" freq="60" friendlyPos="x" id="e2det_2/4to3/4_0" lane="2/4to3/4_0" length="90.4" pos="0"/>
    <laneAreaDetector file="e2output.xml" freq="60" friendlyPos="x" id="e2det_3/3to3/4_0" lane="3/3to3/4_0" length="90.4" pos="0"/>
    <laneAreaDetector file="e2output.xml" freq="60" friendlyPos="x" id="e2det_4/4to3/4_0" lane="4/4to3/4_0" length="91.9" pos="0"/>
    <laneAreaDetector file="e2output.xml" freq="60" friendlyPos="x" id="e2det_3/1to4/1_0" lane="3/1to4/1_0" length="90.4" pos="0"/>
    <laneAreaDetector file="e2output.xml" freq="60" friendlyPos="x" id="e2det_4/0to4/1_0" lane="4/0to4/1_0" length="91.9" pos="0"/>
    <laneAreaDetector file="e2output.xml" freq="60" friendlyPos="x" id="e2det_4/2to4/1_0" lane="4/2to4/1_0" length="90.4" pos="0"/>
    <laneAreaDetector file="e2output.xml" freq="60" friendlyPos="x" id="e2det_3/2to4/2_0" lane="3/2to4/2_0" length="90.4" pos="0"/>
    <laneAreaDetector file="e2output.xml" freq="60" friendlyPos="x" id="e2det_4/1to4/2_0" lane="4/1to4/2_0" length="90.4" pos="0"/>
    <laneAreaDetector file="e2output.xml" freq="60" friendlyPos="x" id="e2det_4/3to4/2_0" lane="4/3to4/2_0" length="90.4" pos="0"/>
    <laneAreaDetector file="e2output.xml" freq="60" friendlyPos="x" id="e2det_3/3to4/3_0" lane="3/3to4/3_0" length="90.4" pos="0"/>
    <laneAreaDetector file="e2output.xml" freq="60" friendlyPos="x" id="e2det_4/2to4/3_0" lane="4/2to4/3_0" length="90.4" pos="0"/>
    <laneAreaDetector file="e2output.xml" freq="60" friendlyPos="x" id="e2det_4/4to4/3_0" lane="4/4to4/3_0" length="91.9" pos="0"/>
</additional>
