<?xml version="1.0" encoding="UTF-8"?>

<!-- generated on 3/28/2018 10:40:43 AM by Netedit Version 0.32.0
<?xml version="1.0" encoding="UTF-8"?>

<configuration xmlns:xsi="http://www.w3.org/2001/XMLSchema-instance" xsi:noNamespaceSchemaLocation="http://sumo.dlr.de/xsd/netconvertConfiguration.xsd">

    <input>
        <sumo-net-file value="C:\Users\ArpuSuji\PycharmProjects\SIH\vjw.net.xml"/>
    </input>

    <output>
        <output-file value="C:\Users\ArpuSuji\PycharmProjects\SIH\vjw.net.xml"/>
        <output.street-names value="true"/>
    </output>

    <processing>
        <no-turnarounds value="true"/>
        <offset.disable-normalization value="true"/>
        <lefthand value="false"/>
        <junctions.corner-detail value="0"/>
        <rectangular-lane-cut value="false"/>
        <walkingareas value="false"/>
    </processing>

</configuration>
-->

<net version="0.27" xmlns:xsi="http://www.w3.org/2001/XMLSchema-instance" xsi:noNamespaceSchemaLocation="http://sumo.dlr.de/xsd/net_file.xsd">

    <location netOffset="-459439.81,-1825025.87" convBoundary="0.00,0.00,6157.35,2009.90" origBoundary="80.615586,16.319841,81.056853,16.525715" projParameter="+proj=utm +zone=44 +ellps=WGS84 +datum=WGS84 +units=m +no_defs"/>

    <type id="highway.bridleway" priority="1" numLanes="1" speed="2.78" allow="pedestrian" oneway="1" width="2.00"/>
    <type id="highway.bus_guideway" priority="1" numLanes="1" speed="8.33" allow="bus" oneway="1"/>
    <type id="highway.cycleway" priority="1" numLanes="1" speed="5.56" allow="bicycle" oneway="0" width="1.00"/>
    <type id="highway.footway" priority="1" numLanes="1" speed="2.78" allow="pedestrian" oneway="1" width="2.00"/>
    <type id="highway.ford" priority="1" numLanes="1" speed="2.78" allow="army" oneway="0"/>
    <type id="highway.living_street" priority="3" numLanes="1" speed="2.78" disallow="tram rail_urban rail rail_electric ship" oneway="0"/>
    <type id="highway.motorway" priority="13" numLanes="2" speed="44.44" allow="private emergency authority army vip passenger hov taxi bus coach delivery truck trailer motorcycle evehicle custom1 custom2" oneway="1"/>
    <type id="highway.motorway_link" priority="12" numLanes="1" speed="22.22" allow="private emergency authority army vip passenger hov taxi bus coach delivery truck trailer motorcycle evehicle custom1 custom2" oneway="1"/>
    <type id="highway.path" priority="1" numLanes="1" speed="2.78" allow="bicycle pedestrian" oneway="1" width="2.00"/>
    <type id="highway.pedestrian" priority="1" numLanes="1" speed="2.78" allow="pedestrian" oneway="1" width="2.00"/>
    <type id="highway.primary" priority="9" numLanes="2" speed="27.78" disallow="tram rail_urban rail rail_electric ship" oneway="0"/>
    <type id="highway.primary_link" priority="8" numLanes="1" speed="22.22" disallow="tram rail_urban rail rail_electric ship" oneway="0"/>
    <type id="highway.raceway" priority="14" numLanes="2" speed="83.33" allow="vip" oneway="0"/>
    <type id="highway.residential" priority="4" numLanes="1" speed="13.89" disallow="tram rail_urban rail rail_electric ship" oneway="0"/>
    <type id="highway.secondary" priority="7" numLanes="2" speed="27.78" disallow="tram rail_urban rail rail_electric ship" oneway="0"/>
    <type id="highway.secondary_link" priority="6" numLanes="1" speed="22.22" disallow="tram rail_urban rail rail_electric ship" oneway="0"/>
    <type id="highway.service" priority="2" numLanes="1" speed="5.56" allow="delivery bicycle pedestrian" oneway="0"/>
    <type id="highway.services" priority="1" numLanes="1" speed="8.33" disallow="tram rail_urban rail rail_electric ship" oneway="0"/>
    <type id="highway.stairs" priority="1" numLanes="1" speed="1.39" allow="pedestrian" oneway="1" width="2.00"/>
    <type id="highway.step" priority="1" numLanes="1" speed="1.39" allow="pedestrian" oneway="1" width="2.00"/>
    <type id="highway.steps" priority="1" numLanes="1" speed="1.39" allow="pedestrian" oneway="1" width="2.00"/>
    <type id="highway.tertiary" priority="6" numLanes="1" speed="22.22" disallow="tram rail_urban rail rail_electric ship" oneway="0"/>
    <type id="highway.tertiary_link" priority="5" numLanes="1" speed="22.22" disallow="tram rail_urban rail rail_electric ship" oneway="0"/>
    <type id="highway.track" priority="1" numLanes="1" speed="5.56" disallow="tram rail_urban rail rail_electric ship" oneway="0"/>
    <type id="highway.trunk" priority="11" numLanes="2" speed="27.78" disallow="tram rail_urban rail rail_electric bicycle pedestrian ship" oneway="0"/>
    <type id="highway.trunk_link" priority="10" numLanes="1" speed="22.22" disallow="tram rail_urban rail rail_electric bicycle pedestrian ship" oneway="0"/>
    <type id="highway.unclassified" priority="5" numLanes="1" speed="13.89" disallow="tram rail_urban rail rail_electric ship" oneway="0"/>
    <type id="highway.unsurfaced" priority="1" numLanes="1" speed="8.33" disallow="tram rail_urban rail rail_electric ship" oneway="0"/>
    <type id="railway.light_rail" priority="15" numLanes="1" speed="27.78" allow="rail_urban" oneway="1"/>
    <type id="railway.preserved" priority="15" numLanes="1" speed="27.78" allow="rail" oneway="1"/>
    <type id="railway.rail" priority="15" numLanes="1" speed="83.33" allow="rail rail_electric" oneway="1"/>
    <type id="railway.subway" priority="15" numLanes="1" speed="27.78" allow="rail_urban" oneway="1"/>
    <type id="railway.tram" priority="15" numLanes="1" speed="13.89" allow="tram" oneway="1"/>

    <edge id=":1880441532_0" function="internal">
        <lane id=":1880441532_0_0" index="0" disallow="tram rail_urban rail rail_electric ship" speed="27.78" length="4.82" shape="992.57,0.71 992.78,-0.76 993.35,-1.49 994.28,-1.47 995.55,-0.71"/>
    </edge>
    <edge id=":1880441596_0" function="internal">
        <lane id=":1880441596_0_0" index="0" disallow="tram rail_urban rail rail_electric ship" speed="27.78" length="4.82" shape="1913.47,279.38 1914.87,279.88 1915.47,280.58 1915.27,281.48 1914.27,282.58"/>
    </edge>
    <edge id=":1880441725_0" function="internal">
        <lane id=":1880441725_0_0" index="0" disallow="tram rail_urban rail rail_electric ship" speed="27.78" length="6.07" shape="1254.25,448.72 1253.51,447.09 1252.52,446.04 1251.27,445.58 1249.76,445.69"/>
    </edge>
    <edge id=":1880441725_1" function="internal">
        <lane id=":1880441725_1_0" index="0" disallow="tram rail_urban rail rail_electric ship" speed="27.78" length="16.88" shape="1254.25,448.72 1249.68,432.33"/>
        <lane id=":1880441725_1_1" index="1" disallow="tram rail_urban rail rail_electric ship" speed="27.78" length="16.88" shape="1257.39,447.72 1252.89,431.57"/>
    </edge>
    <edge id=":1880441725_3" function="internal">
        <lane id=":1880441725_3_0" index="0" disallow="tram rail_urban rail rail_electric ship" speed="27.78" length="16.45" shape="1257.39,447.72 1256.64,443.21 1257.56,439.67 1260.16,437.09 1264.42,435.47"/>
    </edge>
    <edge id=":1880441725_4" function="internal">
        <lane id=":1880441725_4_0" index="0" disallow="tram rail_urban rail rail_electric ship" speed="27.78" length="4.82" shape="1257.39,447.72 1257.80,446.29 1258.46,445.64 1259.38,445.79 1260.54,446.71"/>
    </edge>
    <edge id=":1880441725_5" function="internal">
        <lane id=":1880441725_5_0" index="0" disallow="tram rail_urban rail rail_electric ship" speed="27.78" length="5.11" shape="1265.87,441.91 1264.54,442.41 1263.74,443.22 1263.45,444.32 1263.68,445.71"/>
    </edge>
    <edge id=":1880441725_6" function="internal">
        <lane id=":1880441725_6_0" index="0" disallow="tram rail_urban rail rail_electric ship" speed="27.78" length="16.58" shape="1265.87,441.91 1249.76,445.69"/>
        <lane id=":1880441725_6_1" index="1" disallow="tram rail_urban rail rail_electric ship" speed="27.78" length="16.58" shape="1265.14,438.69 1248.97,442.48"/>
    </edge>
    <edge id=":1880441725_8" function="internal">
        <lane id=":1880441725_8_0" index="0" disallow="tram rail_urban rail rail_electric ship" speed="27.78" length="6.67" shape="1265.14,438.69 1260.62,439.09 1258.58,438.48"/>
    </edge>
    <edge id=":1880441725_9" function="internal">
        <lane id=":1880441725_9_0" index="0" disallow="tram rail_urban rail rail_electric ship" speed="27.78" length="2.41" shape="1265.14,438.69 1263.76,438.15 1263.17,437.44"/>
    </edge>
    <edge id=":1880441725_20" function="internal">
        <lane id=":1880441725_20_0" index="0" speed="27.78" length="9.44" shape="1258.58,438.48 1257.06,438.03 1254.49,435.53 1252.89,431.57"/>
    </edge>
    <edge id=":1880441725_21" function="internal">
        <lane id=":1880441725_21_0" index="0" speed="27.78" length="2.41" shape="1263.17,437.44 1263.40,436.54 1264.42,435.47"/>
    </edge>
    <edge id=":1880441725_10" function="internal">
        <lane id=":1880441725_10_0" index="0" disallow="tram rail_urban rail rail_electric ship" speed="27.78" length="5.57" shape="1259.31,430.05 1259.86,431.32 1260.77,432.11 1262.05,432.42 1263.70,432.25"/>
    </edge>
    <edge id=":1880441725_11" function="internal">
        <lane id=":1880441725_11_0" index="0" disallow="tram rail_urban rail rail_electric ship" speed="27.78" length="16.39" shape="1259.31,430.05 1263.68,445.71"/>
        <lane id=":1880441725_11_1" index="1" disallow="tram rail_urban rail rail_electric ship" speed="27.78" length="16.39" shape="1256.10,430.81 1260.54,446.71"/>
    </edge>
    <edge id=":1880441725_13" function="internal">
        <lane id=":1880441725_13_0" index="0" disallow="tram rail_urban rail rail_electric ship" speed="27.78" length="15.57" shape="1256.10,430.81 1256.49,435.05 1255.43,438.41 1252.92,440.89 1248.97,442.48"/>
    </edge>
    <edge id=":1880441725_14" function="internal">
        <lane id=":1880441725_14_0" index="0" disallow="tram rail_urban rail rail_electric ship" speed="27.78" length="4.82" shape="1256.10,430.81 1255.58,432.21 1254.88,432.80 1253.98,432.59 1252.89,431.57"/>
    </edge>
    <edge id=":1880441725_15" function="internal">
        <lane id=":1880441725_15_0" index="0" disallow="tram rail_urban rail rail_electric ship" speed="27.78" length="4.99" shape="1247.39,436.07 1248.66,435.56 1249.46,434.77 1249.80,433.69 1249.68,432.33"/>
    </edge>
    <edge id=":1880441725_16" function="internal">
        <lane id=":1880441725_16_0" index="0" disallow="tram rail_urban rail rail_electric ship" speed="27.78" length="16.72" shape="1247.39,436.07 1263.70,432.25"/>
        <lane id=":1880441725_16_1" index="1" disallow="tram rail_urban rail rail_electric ship" speed="27.78" length="16.72" shape="1248.18,439.28 1264.42,435.47"/>
    </edge>
    <edge id=":1880441725_18" function="internal">
        <lane id=":1880441725_18_0" index="0" disallow="tram rail_urban rail rail_electric ship" speed="27.78" length="6.42" shape="1248.18,439.28 1252.43,438.89 1254.49,439.55"/>
    </edge>
    <edge id=":1880441725_19" function="internal">
        <lane id=":1880441725_19_0" index="0" disallow="tram rail_urban rail rail_electric ship" speed="27.78" length="2.41" shape="1248.18,439.28 1249.58,439.78 1250.18,440.49"/>
    </edge>
    <edge id=":1880441725_22" function="internal">
        <lane id=":1880441725_22_0" index="0" speed="27.78" length="9.78" shape="1254.49,439.55 1255.90,440.00 1258.61,442.61 1260.54,446.71"/>
    </edge>
    <edge id=":1880441725_23" function="internal">
        <lane id=":1880441725_23_0" index="0" speed="27.78" length="2.41" shape="1250.18,440.49 1249.98,441.39 1248.97,442.48"/>
    </edge>
    <edge id=":1880441766_0" function="internal">
        <lane id=":1880441766_0_0" index="0" disallow="tram rail_urban rail rail_electric ship" speed="25.00" length="5.09" shape="729.29,569.15 728.79,567.86 727.99,567.03 726.89,566.66 725.51,566.76"/>
    </edge>
    <edge id=":1880441766_1" function="internal">
        <lane id=":1880441766_1_0" index="0" disallow="tram rail_urban rail rail_electric ship" speed="22.22" length="16.22" shape="729.29,569.15 725.78,553.32"/>
    </edge>
    <edge id=":1880441766_2" function="internal">
        <lane id=":1880441766_2_0" index="0" disallow="tram rail_urban rail rail_electric ship" speed="25.00" length="13.20" shape="729.29,569.15 728.72,564.92 729.22,561.69 730.80,559.46 733.45,558.22"/>
    </edge>
    <edge id=":1880441766_3" function="internal">
        <lane id=":1880441766_3_0" index="0" disallow="tram rail_urban rail rail_electric ship" speed="22.22" length="4.82" shape="729.29,569.15 729.81,567.76 730.52,567.17 731.42,567.38 732.51,568.40"/>
    </edge>
    <edge id=":1880441766_4" function="internal">
        <lane id=":1880441766_4_0" index="0" disallow="tram rail_urban rail rail_electric ship" speed="25.00" length="5.10" shape="734.93,564.65 733.61,565.16 732.76,565.95 732.39,567.03 732.51,568.40"/>
    </edge>
    <edge id=":1880441766_5" function="internal">
        <lane id=":1880441766_5_0" index="0" disallow="tram rail_urban rail rail_electric ship" speed="27.78" length="9.64" shape="734.93,564.65 725.51,566.76"/>
        <lane id=":1880441766_5_1" index="1" disallow="tram rail_urban rail rail_electric ship" speed="27.78" length="9.64" shape="734.19,561.44 724.81,563.54"/>
    </edge>
    <edge id=":1880441766_7" function="internal">
        <lane id=":1880441766_7_0" index="0" disallow="tram rail_urban rail rail_electric ship" speed="25.00" length="4.58" shape="734.19,561.44 731.27,561.49 729.82,560.67"/>
    </edge>
    <edge id=":1880441766_8" function="internal">
        <lane id=":1880441766_8_0" index="0" disallow="tram rail_urban rail rail_electric ship" speed="27.78" length="2.41" shape="734.19,561.44 732.80,560.91 732.21,560.20"/>
    </edge>
    <edge id=":1880441766_18" function="internal">
        <lane id=":1880441766_18_0" index="0" speed="25.00" length="8.65" shape="729.82,560.67 728.89,560.15 727.06,557.43 725.78,553.32"/>
    </edge>
    <edge id=":1880441766_19" function="internal">
        <lane id=":1880441766_19_0" index="0" speed="27.78" length="2.41" shape="732.21,560.20 732.43,559.31 733.45,558.22"/>
    </edge>
    <edge id=":1880441766_9" function="internal">
        <lane id=":1880441766_9_0" index="0" disallow="tram rail_urban rail rail_electric ship" speed="25.00" length="5.02" shape="729.01,552.65 729.48,553.94 730.26,554.77 731.33,555.12 732.71,555.01"/>
    </edge>
    <edge id=":1880441766_10" function="internal">
        <lane id=":1880441766_10_0" index="0" disallow="tram rail_urban rail rail_electric ship" speed="22.22" length="16.14" shape="729.01,552.65 732.51,568.40"/>
    </edge>
    <edge id=":1880441766_11" function="internal">
        <lane id=":1880441766_11_0" index="0" disallow="tram rail_urban rail rail_electric ship" speed="25.00" length="13.12" shape="729.01,552.65 729.50,556.91 728.96,560.14 727.40,562.35 724.81,563.54"/>
    </edge>
    <edge id=":1880441766_12" function="internal">
        <lane id=":1880441766_12_0" index="0" disallow="tram rail_urban rail rail_electric ship" speed="22.22" length="4.82" shape="729.01,552.65 728.46,554.03 727.73,554.60 726.84,554.36 725.78,553.32"/>
    </edge>
    <edge id=":1880441766_13" function="internal">
        <lane id=":1880441766_13_0" index="0" disallow="tram rail_urban rail rail_electric ship" speed="25.00" length="5.06" shape="723.41,557.09 724.69,556.61 725.51,555.82 725.88,554.72 725.78,553.32"/>
    </edge>
    <edge id=":1880441766_14" function="internal">
        <lane id=":1880441766_14_0" index="0" disallow="tram rail_urban rail rail_electric ship" speed="27.78" length="9.55" shape="723.41,557.09 732.71,555.01"/>
        <lane id=":1880441766_14_1" index="1" disallow="tram rail_urban rail rail_electric ship" speed="27.78" length="9.55" shape="724.11,560.31 733.45,558.22"/>
    </edge>
    <edge id=":1880441766_16" function="internal">
        <lane id=":1880441766_16_0" index="0" disallow="tram rail_urban rail rail_electric ship" speed="25.00" length="4.44" shape="724.11,560.31 726.96,560.32 728.33,561.11"/>
    </edge>
    <edge id=":1880441766_17" function="internal">
        <lane id=":1880441766_17_0" index="0" disallow="tram rail_urban rail rail_electric ship" speed="27.78" length="2.41" shape="724.11,560.31 725.49,560.86 726.07,561.58"/>
    </edge>
    <edge id=":1880441766_20" function="internal">
        <lane id=":1880441766_20_0" index="0" speed="25.00" length="8.65" shape="728.33,561.11 729.30,561.67 731.15,564.36 732.51,568.40"/>
    </edge>
    <edge id=":1880441766_21" function="internal">
        <lane id=":1880441766_21_0" index="0" speed="27.78" length="2.41" shape="726.07,561.58 725.84,562.47 724.81,563.54"/>
    </edge>
    <edge id=":1880441829_0" function="internal">
        <lane id=":1880441829_0_0" index="0" disallow="tram rail_urban rail rail_electric ship" speed="27.78" length="6.05" shape="252.81,670.42 253.12,670.87 254.81,671.62 256.86,672.39 258.24,672.88"/>
    </edge>
    <edge id=":1880441829_1" function="internal">
        <lane id=":1880441829_1_0" index="0" disallow="tram rail_urban rail rail_electric ship" speed="27.78" length="17.05" shape="251.97,667.23 248.12,668.88 247.70,670.89 250.70,673.26 257.13,675.99"/>
    </edge>
    <edge id=":1880441829_2" function="internal">
        <lane id=":1880441829_2_0" index="0" disallow="tram rail_urban rail rail_electric ship" speed="27.78" length="4.82" shape="251.97,667.23 250.56,666.75 249.95,666.06 250.14,665.15 251.13,664.04"/>
    </edge>
    <edge id=":1880441829_3" function="internal">
        <lane id=":1880441829_3_0" index="0" disallow="tram rail_urban rail rail_electric ship" speed="27.78" length="17.42" shape="234.01,663.89 238.67,665.01 242.03,664.32 245.45,662.65 250.29,660.85"/>
        <lane id=":1880441829_3_1" index="1" disallow="tram rail_urban rail rail_electric ship" speed="27.78" length="17.42" shape="234.01,663.89 238.87,665.57 242.44,665.98 246.08,665.39 251.13,664.04"/>
    </edge>
    <edge id=":1880441829_5" function="internal">
        <lane id=":1880441829_5_0" index="0" disallow="tram rail_urban rail rail_electric ship" speed="27.78" length="25.91" shape="234.01,663.89 258.24,672.88"/>
        <lane id=":1880441829_5_1" index="1" disallow="tram rail_urban rail rail_electric ship" speed="27.78" length="25.91" shape="232.78,666.95 257.13,675.99"/>
    </edge>
    <edge id=":1880441855_0" function="internal">
        <lane id=":1880441855_0_0" index="0" disallow="tram rail_urban rail rail_electric ship" speed="25.00" length="4.90" shape="777.00,764.08 777.45,765.36 778.14,766.31 779.09,766.94 780.28,767.24"/>
    </edge>
    <edge id=":1880441855_1" function="internal">
        <lane id=":1880441855_1_0" index="0" disallow="tram rail_urban rail rail_electric ship" speed="22.22" length="4.82" shape="777.00,764.08 776.47,765.47 775.75,766.05 774.86,765.82 773.78,764.79"/>
    </edge>
    <edge id=":1880441855_2" function="internal">
        <lane id=":1880441855_2_0" index="0" disallow="tram rail_urban rail rail_electric ship" speed="25.00" length="4.21" shape="770.41,766.02 772.03,766.13 773.13,765.97 773.72,765.52 773.78,764.79"/>
    </edge>
    <edge id=":1880441855_3" function="internal">
        <lane id=":1880441855_3_0" index="0" disallow="tram rail_urban rail rail_electric ship" speed="27.78" length="10.00" shape="770.41,766.02 780.28,767.24"/>
        <lane id=":1880441855_3_1" index="1" disallow="tram rail_urban rail rail_electric ship" speed="27.78" length="10.00" shape="769.96,769.29 779.94,770.52"/>
    </edge>
    <edge id=":1880441878_0" function="internal">
        <lane id=":1880441878_0_0" index="0" disallow="tram rail_urban rail rail_electric ship" speed="27.78" length="6.38" shape="1374.66,837.53 1375.34,839.48 1376.20,840.92 1377.23,841.84 1378.43,842.24"/>
    </edge>
    <edge id=":1880441878_1" function="internal">
        <lane id=":1880441878_1_0" index="0" disallow="tram rail_urban rail rail_electric ship" speed="27.78" length="10.34" shape="1371.48,838.39 1372.55,841.31 1374.01,843.47 1375.85,844.87 1378.07,845.52"/>
    </edge>
    <edge id=":1880441878_2" function="internal">
        <lane id=":1880441878_2_0" index="0" disallow="tram rail_urban rail rail_electric ship" speed="27.78" length="4.82" shape="1371.48,838.39 1371.00,839.80 1370.31,840.41 1369.41,840.23 1368.29,839.25"/>
    </edge>
    <edge id=":1880441878_3" function="internal">
        <lane id=":1880441878_3_0" index="0" disallow="tram rail_urban rail rail_electric ship" speed="27.78" length="4.01" shape="1361.33,839.99 1362.38,840.21 1363.69,840.47 1364.76,840.52 1365.10,840.11"/>
    </edge>
    <edge id=":1880441878_4" function="internal">
        <lane id=":1880441878_4_0" index="0" disallow="tram rail_urban rail rail_electric ship" speed="27.78" length="7.56" shape="1361.33,839.99 1364.56,840.36 1366.80,840.35 1368.04,839.98 1368.29,839.25"/>
    </edge>
    <edge id=":1880441878_5" function="internal">
        <lane id=":1880441878_5_0" index="0" disallow="tram rail_urban rail rail_electric ship" speed="27.78" length="17.30" shape="1361.33,839.99 1378.43,842.24"/>
        <lane id=":1880441878_5_1" index="1" disallow="tram rail_urban rail rail_electric ship" speed="27.78" length="17.30" shape="1360.86,843.26 1378.07,845.52"/>
    </edge>
    <edge id=":2833253693_0" function="internal">
        <lane id=":2833253693_0_0" index="0" disallow="tram rail_urban rail rail_electric ship" speed="22.22" length="4.82" shape="665.87,254.66 666.44,253.28 667.16,252.71 668.06,252.95 669.11,254.00"/>
    </edge>
    <edge id=":2833253704_0" function="internal">
        <lane id=":2833253704_0_0" index="0" disallow="tram rail_urban rail rail_electric ship" speed="13.89" length="4.82" shape="1938.67,324.40 1940.09,324.83 1940.73,325.50 1940.57,326.41 1939.63,327.56"/>
    </edge>
    <edge id=":2833253708_0" function="internal">
        <lane id=":2833253708_0_0" index="0" disallow="tram rail_urban rail rail_electric ship" speed="13.89" length="4.82" shape="1097.34,345.43 1097.86,344.03 1098.57,343.44 1099.47,343.66 1100.56,344.67"/>
    </edge>
    <edge id=":2833253734_0" function="internal">
        <lane id=":2833253734_0_0" index="0" disallow="tram rail_urban rail rail_electric ship" speed="13.89" length="2.65" shape="989.27,439.66 989.05,438.97 988.66,438.52 988.10,438.32 987.37,438.36"/>
    </edge>
    <edge id=":2833253734_1" function="internal">
        <lane id=":2833253734_1_0" index="0" disallow="tram rail_urban rail rail_electric ship" speed="13.89" length="2.20" shape="989.27,439.66 989.88,438.31 990.45,437.89"/>
    </edge>
    <edge id=":2833253734_4" function="internal">
        <lane id=":2833253734_4_0" index="0" speed="13.89" length="2.62" shape="990.45,437.89 990.63,437.76 991.51,438.03 992.53,439.12"/>
    </edge>
    <edge id=":2833253734_2" function="internal">
        <lane id=":2833253734_2_0" index="0" disallow="tram rail_urban rail rail_electric ship" speed="13.89" length="8.12" shape="986.70,435.13 988.93,434.99 990.65,435.61 991.85,436.99 992.53,439.12"/>
    </edge>
    <edge id=":2833253734_3" function="internal">
        <lane id=":2833253734_3_0" index="0" disallow="tram rail_urban rail rail_electric ship" speed="13.89" length="2.79" shape="986.70,435.13 988.08,435.69 988.65,436.41 988.55,436.78"/>
    </edge>
    <edge id=":2833253734_5" function="internal">
        <lane id=":2833253734_5_0" index="0" speed="13.89" length="2.03" shape="988.55,436.78 988.41,437.30 987.37,438.36"/>
    </edge>
    <edge id=":2833253737_0" function="internal">
        <lane id=":2833253737_0_0" index="0" disallow="tram rail_urban rail rail_electric ship" speed="20.84" length="5.00" shape="1210.36,458.54 1209.89,457.25 1209.12,456.43 1208.05,456.06 1206.68,456.16"/>
    </edge>
    <edge id=":2833253737_1" function="internal">
        <lane id=":2833253737_1_0" index="0" disallow="tram rail_urban rail rail_electric ship" speed="20.84" length="12.98" shape="1210.36,458.54 1209.85,454.31 1210.33,451.08 1211.82,448.85 1214.31,447.62"/>
    </edge>
    <edge id=":2833253737_2" function="internal">
        <lane id=":2833253737_2_0" index="0" disallow="tram rail_urban rail rail_electric ship" speed="13.89" length="4.82" shape="1210.36,458.54 1210.91,457.15 1211.63,456.58 1212.52,456.80 1213.59,457.84"/>
    </edge>
    <edge id=":2833253737_3" function="internal">
        <lane id=":2833253737_3_0" index="0" disallow="tram rail_urban rail rail_electric ship" speed="20.84" length="5.05" shape="1215.89,454.03 1214.64,454.54 1213.83,455.35 1213.48,456.45 1213.59,457.84"/>
    </edge>
    <edge id=":2833253737_4" function="internal">
        <lane id=":2833253737_4_0" index="0" disallow="tram rail_urban rail rail_electric ship" speed="27.78" length="9.41" shape="1215.89,454.03 1206.68,456.16"/>
        <lane id=":2833253737_4_1" index="1" disallow="tram rail_urban rail rail_electric ship" speed="27.78" length="9.41" shape="1215.10,450.82 1205.97,452.94"/>
    </edge>
    <edge id=":2833253737_6" function="internal">
        <lane id=":2833253737_6_0" index="0" disallow="tram rail_urban rail rail_electric ship" speed="27.78" length="2.41" shape="1215.10,450.82 1213.70,450.32 1213.11,449.61"/>
    </edge>
    <edge id=":2833253737_11" function="internal">
        <lane id=":2833253737_11_0" index="0" speed="27.78" length="2.41" shape="1213.11,449.61 1213.31,448.71 1214.31,447.62"/>
    </edge>
    <edge id=":2833253737_7" function="internal">
        <lane id=":2833253737_7_0" index="0" disallow="tram rail_urban rail rail_electric ship" speed="27.78" length="9.24" shape="1204.57,446.49 1213.52,444.41"/>
        <lane id=":2833253737_7_1" index="1" disallow="tram rail_urban rail rail_electric ship" speed="27.78" length="9.24" shape="1205.27,449.71 1214.31,447.62"/>
    </edge>
    <edge id=":2833253737_9" function="internal">
        <lane id=":2833253737_9_0" index="0" disallow="tram rail_urban rail rail_electric ship" speed="20.84" length="4.42" shape="1205.27,449.71 1208.14,449.71 1209.48,450.48"/>
    </edge>
    <edge id=":2833253737_10" function="internal">
        <lane id=":2833253737_10_0" index="0" disallow="tram rail_urban rail rail_electric ship" speed="27.78" length="2.41" shape="1205.27,449.71 1206.65,450.26 1207.23,450.97"/>
    </edge>
    <edge id=":2833253737_12" function="internal">
        <lane id=":2833253737_12_0" index="0" speed="20.84" length="8.69" shape="1209.48,450.48 1210.49,451.06 1212.30,453.77 1213.59,457.84"/>
    </edge>
    <edge id=":2833253737_13" function="internal">
        <lane id=":2833253737_13_0" index="0" speed="27.78" length="2.41" shape="1207.23,450.97 1207.01,451.87 1205.97,452.94"/>
    </edge>
    <edge id=":2833253741_0" function="internal">
        <lane id=":2833253741_0_0" index="0" disallow="tram rail_urban rail rail_electric ship" speed="13.89" length="4.82" shape="558.18,451.70 558.73,450.32 559.45,449.75 560.34,449.98 561.40,451.02"/>
    </edge>
    <edge id=":2833253742_0" function="internal">
        <lane id=":2833253742_0_0" index="0" disallow="tram rail_urban rail rail_electric ship" speed="20.84" length="5.05" shape="1164.65,468.60 1164.20,467.29 1163.44,466.45 1162.36,466.09 1160.98,466.21"/>
    </edge>
    <edge id=":2833253742_1" function="internal">
        <lane id=":2833253742_1_0" index="0" disallow="tram rail_urban rail rail_electric ship" speed="20.84" length="13.11" shape="1164.65,468.60 1164.23,464.31 1164.79,461.06 1166.33,458.84 1168.86,457.66"/>
    </edge>
    <edge id=":2833253742_2" function="internal">
        <lane id=":2833253742_2_0" index="0" disallow="tram rail_urban rail rail_electric ship" speed="13.89" length="4.82" shape="1164.65,468.60 1165.23,467.23 1165.97,466.67 1166.85,466.92 1167.90,467.98"/>
    </edge>
    <edge id=":2833253742_3" function="internal">
        <lane id=":2833253742_3_0" index="0" disallow="tram rail_urban rail rail_electric ship" speed="20.84" length="5.15" shape="1170.27,464.11 1169.00,464.60 1168.18,465.40 1167.81,466.53 1167.90,467.98"/>
    </edge>
    <edge id=":2833253742_4" function="internal">
        <lane id=":2833253742_4_0" index="0" disallow="tram rail_urban rail rail_electric ship" speed="27.78" length="9.55" shape="1170.27,464.11 1160.98,466.21"/>
        <lane id=":2833253742_4_1" index="1" disallow="tram rail_urban rail rail_electric ship" speed="27.78" length="9.55" shape="1169.56,460.89 1160.23,463.00"/>
    </edge>
    <edge id=":2833253742_6" function="internal">
        <lane id=":2833253742_6_0" index="0" disallow="tram rail_urban rail rail_electric ship" speed="27.78" length="2.41" shape="1169.56,460.89 1168.18,460.34 1167.60,459.63"/>
    </edge>
    <edge id=":2833253742_11" function="internal">
        <lane id=":2833253742_11_0" index="0" speed="27.78" length="2.41" shape="1167.60,459.63 1167.83,458.73 1168.86,457.66"/>
    </edge>
    <edge id=":2833253742_7" function="internal">
        <lane id=":2833253742_7_0" index="0" disallow="tram rail_urban rail rail_electric ship" speed="27.78" length="9.64" shape="1158.73,456.57 1168.16,454.44"/>
        <lane id=":2833253742_7_1" index="1" disallow="tram rail_urban rail rail_electric ship" speed="27.78" length="9.64" shape="1159.48,459.78 1168.86,457.66"/>
    </edge>
    <edge id=":2833253742_9" function="internal">
        <lane id=":2833253742_9_0" index="0" disallow="tram rail_urban rail rail_electric ship" speed="20.84" length="4.63" shape="1159.48,459.78 1162.46,459.72 1163.90,460.53"/>
    </edge>
    <edge id=":2833253742_10" function="internal">
        <lane id=":2833253742_10_0" index="0" disallow="tram rail_urban rail rail_electric ship" speed="27.78" length="2.41" shape="1159.48,459.78 1160.87,460.31 1161.46,461.02"/>
    </edge>
    <edge id=":2833253742_12" function="internal">
        <lane id=":2833253742_12_0" index="0" speed="20.84" length="8.74" shape="1163.90,460.53 1164.86,461.07 1166.67,463.82 1167.90,467.98"/>
    </edge>
    <edge id=":2833253742_13" function="internal">